Measurement: Broad Scan, 785 nm, unoriented, Raman Data RAW
Mineral: Abelsonite
Rruff sample: R070007
Ideal chemistry: NiC_31_H_32_N_4_
Locality: Green River Formation, Utah, USA
Source: Geophysical Laboratory, Carnegie Institution of Washington
Description: Purple platy crystals embedded in drill core
Measured chemistry: (Ni_0.92_Fe^2+^_0.05_Cr_0.02_[box]_0.01_)_Î£=1_C_31_H_32_N_4_ ; C, H and N not measured but estimated by stoichiometry
Raman shift (cm-1)	intensity
233.313	57152.5
244.884	57797.9
256.454	57953.4
268.025	57889.2
279.596	57780.2
291.167	57661.5
302.738	57808.8
314.308	57545.1
325.879	57813.3
337.45	57952.5
349.021	57979.2
360.592	57191.3
372.162	56145
383.733	55268.9
395.304	54607.4
406.875	53937.4
418.446	53311
430.016	52888
441.587	52502.2
453.158	51893.8
464.729	51388.8
476.3	50878.4
487.87	50492.6
499.441	50009.4
511.012	49436.7
522.583	48875.9
534.154	48419.8
545.724	47845.3
557.295	47388.3
568.866	46827.1
580.437	46471.3
592.008	45865.6
603.578	45463.9
615.149	44980
626.72	44397.7
638.291	43932.6
649.862	43434.7
661.432	43063
673.003	42520.8
684.574	42249.3
696.145	42011.1
707.716	41752.6
719.287	41308.4
730.857	40948.7
742.428	40291.7
753.999	40031.4
765.57	39684
777.14	39355.4
788.711	39100.3
800.282	38761.9
811.853	38361.3
823.424	37804.4
834.995	37312.2
846.565	36663.7
858.136	36069.4
869.707	35849
881.278	35621.9
892.848	35395.3
904.419	35232.5
915.99	34952.9
927.561	34735.9
939.132	34539.3
950.702	34464.1
962.273	34421.5
973.844	34048.1
985.415	33840.6
996.986	33530.6
1008.56	33177.9
1020.13	32901.6
1031.7	32719.3
1043.27	32654.5
1054.84	32608.9
1066.41	32657.1
1077.98	32504.8
1089.55	32427.7
1101.12	32615.3
1112.69	32924.1
1124.27	32909.1
1135.84	32776.3
1147.41	32379.4
1158.98	32213.3
1170.55	31953.8
1182.12	31854
1193.69	31630.3
1205.26	31557.7
1216.83	31801
1228.4	32117.6
1239.97	32382.3
1251.54	32154.1
1263.11	31743.8
1274.68	31581.8
1286.26	31507.2
1297.83	31152.1
1309.4	30758.6
1320.97	30762.1
1332.54	30732.9
1344.11	30928.4
1355.68	31055.4
1367.25	30784.1
1378.82	30649.2
1390.39	30429.4
1401.96	30206.7
1413.54	30015.3
1425.11	29842.8
1436.68	29673
1448.25	29849.5
1459.82	29637.8
1471.39	29562.8
1482.96	29528.5
1494.53	29378.2
1506.1	29271.4
1517.67	29303.6
1529.24	29202.7
1540.81	29347.5
1552.38	29683.9
1563.95	30287.6
1575.53	30729.5
1587.1	30391
1598.67	29539.7
1610.24	28859.7
1621.81	27908.4
1633.38	27168.3
1644.95	26954.3
1656.52	26723.4
1668.09	25539.5
1679.66	24708.3
1691.23	24130.4
1702.81	23822.3
1714.38	23563.1
1725.95	23239.5
1737.52	22983.9
1749.09	22559.7
1760.66	22493.6
1772.23	22060.2
1783.8	21694.7
1795.37	21330.4
1806.94	21207
1818.51	20742.9
1830.08	20420.3
1841.65	20262.6
1853.22	19822.2
1864.8	19547.4
1876.37	19148.3
1887.94	18865.7
1899.51	18559.4
1911.08	18163.1
1922.65	17885.9
1934.22	17474.2
1945.79	17295.2
1957.36	16869.1
1968.93	16649.7
1980.5	16145.5
1992.08	15955.7
2003.65	15482.8
2015.22	15203.8
2026.79	14875.9
2038.36	14599.4
2049.93	14284.3
2061.5	13916.7
2073.07	13718.3
2084.64	13408.7
2096.21	13078.9
2107.78	12889.9
2119.35	12603.4
2130.92	12323.4
2142.49	11975.5
2154.07	11701.5
2165.64	11497.1
2177.21	11183
2188.78	10958.6
2200.35	10649.6
2211.92	10467.4
2223.49	10228.2
2235.06	9922.07
2246.63	9729.7
2258.2	9510.09
2269.77	9280.17
2281.34	9086.87
2292.92	8835.77
2304.49	8641.39
2316.06	8441.74
2327.63	8213.33
2339.2	7999.85
2350.77	7782.2
2362.34	7610.88
2373.91	7413.47
2385.48	7267.67
2397.05	7037.22
2408.62	6869.01
2420.19	6650.04
2431.76	6473.56
2443.34	6324.94
2454.91	6146.13
2466.48	6032.25
2478.05	5832.52
2489.62	5625.5
2501.19	5457.47
2512.76	5383.07
2524.33	5187.46
2535.9	5006.01
2547.47	4899.4
2559.04	4741.26
2570.61	4622.2
2582.19	4476.79
2593.76	4349.18
2605.33	4153.5
2616.9	4082.28
2628.47	3955.92
2640.04	3813.3
2651.61	3701.61
2663.18	3594.83
2674.75	3469.01
2686.32	3328.69
2697.89	3228.36
2709.46	3105.68
2721.03	2993.54
2732.61	2879.68
2744.18	2807.76
2755.75	2696.57
2767.32	2572.72
2778.89	2516
2790.46	2391.93
2802.03	2344.33
2813.6	2236.67
2825.17	2130.29
2836.74	2066.04
2848.31	1989.54
2859.89	1906.32
2871.46	1849.06
2883.03	1789.02
2894.6	1700.19
2906.17	1636.38
2917.74	1551.14
2929.31	1495.38
2940.88	1422.97
2952.45	1323.58
2964.02	1248.18
2975.59	1176.71
2987.16	1121.72
2998.74	1054.16
3010.3	1018.45
3021.88	951.999
3033.45	904.66
3045.02	851.226
3056.59	835.696
3068.16	801.23
3079.73	741.225
3091.3	699.066
3102.87	638.348
3114.44	593.687
3126.01	564.282
3137.58	532.263
3149.16	499.674
3160.73	467.508
3172.3	454.852
3183.87	425.651
3195.44	408.458
3207.01	393.915
3218.58	375.221
3230.15	370.72
3241.72	341.641
3253.29	335.38
3264.86	319.659
3276.43	298.259
3288.01	284.315
3299.57	284.224
3311.15	281.567
3322.72	256.364
3334.29	263.128
3345.86	230.58
3357.43	225.556
3369	214.078
3380.57	208.737
3392.14	195.032
3403.71	189.823
3415.28	187.202
3426.85	191.298
3438.43	163.549
3450	161.729
3461.57	156.173
3473.14	151.708
3484.71	143.198
3496.28	131.968
3507.85	133.881
3519.42	120.696
3530.99	124.566
3542.56	119.353
3554.13	115.158
3565.7	112.931
3577.28	109.504
3588.84	99.5811
3600.42	96.8381
3611.99	98.4602
3623.56	92.5431
3635.13	87.1304
3646.7	89.9542
3658.27	85.1812
3669.84	79.8625
3681.41	89.9469
3692.98	87.3995
3704.55	63.8506
3716.12	65.2432
3727.7	74.9592
3739.27	65.6035
3750.84	71.9647
3762.41	83.6881
3773.98	65.8847
3785.55	74.0711
3797.12	69.6797
3808.69	64.1329
3820.26	70.5668
3831.83	65.0631
3843.4	53.7297
3854.97	55.9373
3866.55	47.0584
3878.11	60.0728
3889.69	62.5474
3901.26	47.8348
3912.83	59.3248
3924.4	63.5226
3935.97	55.4637
3947.54	50.1487
3959.11	59.3874
3970.68	57.7753
3982.25	55.3242
3993.82	51.0357
4005.39	49.8645
4016.97	134.716
4028.54	47.2788
4040.11	49.8469
4051.68	50.1167
4063.25	44.813
4074.82	37.9452
4086.39	46.4317
4097.96	54.4624
4109.53	41.1814
4121.1	41.4602
4132.67	46.1821
4144.24	42.7586
4155.81	37.1586
4167.39	41.1162
4178.96	45.9376
4190.53	32.1294
4202.1	36.5858
4213.67	42.3406
4225.24	43.8807
4236.81	50.4824
4248.38	37.2597
4259.95	37.4397
4271.52	26.4659
4283.09	48.5403
4294.66	37.2278
