Measurement: Broad Scan, 532 nm, unoriented, Raman Data RAW
Mineral: Abhurite
Rruff sample: R060227
Ideal chemistry: Sn^2+^_21_O_6_(OH)_14_Cl_16_
Locality: Wreck of the SS Cheerful, 14 miles NNW of St. Ives, Cornwall, England
Source: Michael Scott
Description: Aggregate of tan colored platy crystals
Measured chemistry: Sn^2+^_21.00_Cl_16.00_(OH)_14.00_O_6_; (OH) estimated by difference
Raman shift (cm-1)	intensity
86.1309	18.5338
103.487	27.3908
120.843	62.16
138.2	946.985
155.556	1623.42
172.912	1528.87
190.268	1904.56
207.624	3091.52
224.981	1847.99
242.337	1184.75
259.693	1321.44
277.049	792.327
294.405	452.234
311.762	400.363
329.118	486.355
346.474	634.938
363.83	757.612
381.186	621.577
398.543	452.122
415.899	368.438
433.255	362.135
450.611	392.955
467.967	423.498
485.324	380.53
502.68	277.727
520.036	234.593
537.392	228.351
554.748	216.986
572.105	199.581
589.461	187.429
606.817	177.27
624.173	174.558
641.529	170.748
658.886	167.757
676.242	163.782
693.598	161.086
710.954	159.761
728.31	159.006
745.667	155.655
763.023	155.321
780.379	154.123
797.735	154.848
815.091	155.201
832.448	159.101
849.804	159.302
867.16	159.908
884.516	164.062
901.872	171.101
919.229	179.722
936.585	183.406
953.941	189.924
971.297	210.741
988.653	238.591
1006.01	235.412
1023.37	201.185
1040.72	191.284
1058.08	186.646
1075.43	182.587
1092.79	177.112
1110.15	175.367
1127.5	173.25
1144.86	171.872
1162.21	172.815
1179.57	173.58
1196.93	174.418
1214.28	174.792
1231.64	176.482
1249	174.838
1266.35	177.208
1283.71	180.895
1301.07	179.481
1318.42	180.199
1335.78	182.103
1353.13	186.083
1370.49	187.325
1387.85	188.271
1405.2	190.549
1422.56	190.394
1439.91	193.15
1457.27	194.726
1474.63	195.264
1491.98	198.145
1509.34	200.039
1526.7	202.518
1544.05	201.115
1561.41	205.959
1578.76	204.774
1596.12	207.446
1613.48	208.658
1630.83	214.325
1648.19	214.778
1665.55	214.156
1682.9	216.507
1700.26	220.221
1717.61	221.717
1734.97	223.981
1752.33	225.023
1769.68	227.398
1787.04	229.529
1804.39	227.324
1821.75	234.21
1839.11	234.19
1856.46	234.419
1873.82	235.514
1891.18	239.259
1908.53	242.848
1925.89	245.806
1943.24	245.61
1960.6	248.269
1977.96	253.434
1995.31	251.007
2012.67	260.928
2030.03	253.991
2047.38	254.441
2064.74	254.292
2082.09	254.777
2099.45	257.183
2116.81	256.786
2134.16	260.197
2151.52	261.411
2168.88	261.262
2186.23	262.552
2203.59	264.016
2220.94	262.485
2238.3	268.619
2255.66	267.675
2273.01	269.299
2290.37	273.564
2307.72	272.041
2325.08	273.092
2342.44	273.752
2359.79	274.828
2377.15	277.864
2394.51	273.856
2411.86	276.685
2429.22	280.988
2446.57	281.075
2463.93	281.221
2481.29	281.902
2498.64	285.21
2516	285.016
2533.36	285.942
2550.71	284.657
2568.07	289.728
2585.42	285.629
2602.78	289.05
2620.14	293.794
2637.49	290.02
2654.85	288.062
2672.2	290.984
2689.56	295.363
2706.92	296.104
2724.27	292.971
2741.63	295.786
2758.99	294.423
2776.34	294.208
2793.7	294.7
2811.05	300.96
2828.41	298.074
2845.77	304.7
2863.12	304.104
2880.48	302.286
2897.84	300.809
2915.19	305.56
2932.55	306.208
2949.9	306.561
2967.26	305.621
2984.62	308.125
3001.97	307.002
3019.33	309.44
3036.68	313.302
3054.04	313.801
3071.4	317.469
3088.75	322.596
3106.11	321.008
3123.47	323.756
3140.82	331.547
3158.18	334.36
3175.53	339.687
3192.89	347.673
3210.25	360.017
3227.6	372.342
3244.96	381.834
3262.32	405.786
3279.67	429.278
3297.03	474.965
3314.39	522.148
3331.74	553.625
3349.1	595.403
3366.45	672.559
3383.81	800.334
3401.17	1045.05
3418.52	1165.2
3435.88	801.014
3453.23	592.692
3470.59	475.766
3487.95	417.602
3505.3	394.142
3522.66	379.48
3540.01	387.551
3557.37	662.631
3574.73	1060.6
3592.08	386.728
3609.44	337.246
3626.8	328.839
3644.15	323.694
3661.51	319.16
3678.86	319.359
3696.22	318.29
3713.58	319.108
3730.93	314.982
3748.29	315.775
3765.65	319.226
3783	321.29
3800.36	315.528
3817.71	314.743
3835.07	313.534
3852.43	316.549
3869.78	312.147
3887.14	310.508
3904.49	310.954
3921.85	311.153
3939.21	313.427
3956.56	309.901
3973.92	306.076
3991.28	306.218
4008.63	306.655
4025.99	304.123
4043.34	301.447
4060.7	301.847
4078.06	298.598
4095.41	297.448
4112.77	296.67
4130.13	295.682
4147.48	296.717
4164.84	299.382
4182.19	294.062
4199.55	293.147
4216.91	295.566
4234.26	291.9
4251.62	294.966
4268.98	289.735
4286.33	286.268
4303.69	283.75
4321.04	278.786
4338.4	278.088
4355.76	281.279
4373.11	280.076
4390.47	275.375
4407.82	269.594
4425.18	272.479
4442.54	266.03
4459.89	267.494
4477.25	266.572
4494.61	265.344
4511.96	261.914
4529.32	260.868
4546.68	258.577
4564.03	259.819
4581.39	255.816
4598.74	251.789
4616.1	250.453
4633.46	253.204
4650.81	249.74
4668.17	246.969
4685.52	246.515
4702.88	241.72
4720.24	246.543
4737.59	241.973
4754.95	236.541
4772.31	240.131
4789.66	232.985
4807.02	234.442
4824.37	232.189
4841.73	231.953
4859.09	231.507
4876.44	226.708
4893.8	226.074
4911.15	223.832
4928.51	225.028
4945.87	220.29
4963.22	216.221
4980.58	218.588
4997.94	214.204
5015.29	212.659
5032.65	213.227
5050.01	209.554
5067.36	207.423
5084.72	207.976
5102.07	203.908
5119.43	202.881
5136.79	200.332
5154.14	200.426
5171.5	196.596
5188.85	194.584
5206.21	192.827
5223.57	193.692
5240.92	190.641
5258.28	190.538
5275.64	189.186
5292.99	182.977
5310.35	184.995
5327.7	182.034
5345.06	179.297
5362.42	178.145
5379.77	175.513
5397.13	177.841
5414.48	172.434
5431.84	167.92
5449.2	166.813
5466.55	165.337
5483.91	166.566
5501.27	160.193
5518.62	162.252
5535.98	157.713
5553.33	153.558
5570.69	152.913
5588.05	149.792
5605.4	147.569
5622.76	143.756
5640.12	144.417
5657.47	143.381
5674.83	145.681
5692.18	138.87
5709.54	140.306
5726.9	134.978
5744.25	134.407
5761.61	130.936
5778.97	127.994
5796.32	126.12
5813.68	125.292
5831.03	122.053
5848.39	121.7
5865.75	117.46
5883.1	117.537
5900.46	117.921
5917.81	114.377
5935.17	114.187
5952.53	110.005
5969.88	113.288
5987.24	117.158
6004.6	104.561
6021.95	101.104
6039.31	100.087
6056.66	101.934
6074.02	97.9286
6091.38	95.9886
6108.73	96.1481
6126.09	90.9718
6143.44	90.9862
6160.8	90.7058
6178.16	88.8975
6195.51	87.7481
6212.87	83.3734
6230.23	84.6304
6247.58	84.7176
6264.94	82.2239
6282.3	80.2205
6299.65	80.2934
6317.01	79.9949
6334.36	75.9431
6351.72	72.3874
6369.08	72.6574
6386.43	73.0161
6403.79	69.2848
6421.15	69.4825
6438.5	68.5667
6455.86	67.2836
6473.21	68.1197
6490.57	66.3306
6507.93	61.555
6525.28	62.3632
6542.64	59.6878
6559.99	61.0728
6577.35	58.9855
6594.71	54.5212
6612.06	56.3245
6629.42	53.8755
