Measurement: Broad Scan, 532 nm, unoriented, Raman Data RAW
Mineral: Topaz
Rruff sample: R040121
Ideal chemistry: Al_2_SiO_4_F_2_
Locality: Tepetate, San Luis Potosi, Mexico
Source: University of Arizona Mineral Museum
Description: Fragments of a prismatic single crystal
Measured chemistry: Al_2.00_(Si_0.99_Al_0.02_)(F_0.82_(OH)_0.18_)_2_
Raman shift (cm-1)	intensity
135.353	69.0241
152.709	179.895
170.065	177.7
187.421	84.7511
204.778	119.374
222.134	275.315
239.49	1626.86
256.846	775.414
274.202	2019.92
291.559	1948.46
308.915	200.972
326.271	296.716
343.627	251.796
360.983	135.573
378.34	148.819
395.696	222.28
413.052	376.673
430.408	131.364
447.764	174.74
465.121	300.936
482.477	144.675
499.833	178.444
517.189	157.494
534.545	149.078
551.902	228.601
569.258	394.839
586.614	128.519
603.97	118.824
621.326	120.451
638.683	152.042
656.039	156.911
673.395	118.999
690.751	125.041
708.107	131.955
725.464	125.142
742.82	121.419
760.176	119.53
777.532	119.114
794.888	128.7
812.245	145.586
829.601	168.284
846.957	296.395
864.313	392.037
881.669	241.858
899.026	337.848
916.382	745.053
933.738	1744.37
951.094	893.236
968.45	307.936
985.807	361.438
1003.16	301.622
1020.52	280.39
1037.88	191.271
1055.23	180.017
1072.59	180.248
1089.94	177.843
1107.3	178.036
1124.66	182.245
1142.01	179.958
1159.37	187.86
1176.72	191.946
1194.08	185.219
1211.44	201.888
1228.79	200.468
1246.15	210.803
1263.51	232.088
1280.86	239.119
1298.22	247.351
1315.57	256.913
1332.93	265.389
1350.29	273.704
1367.64	281.734
1385	291.845
1402.36	297.07
1419.71	303.997
1437.07	306.216
1454.42	311.835
1471.78	323.897
1489.14	331.933
1506.49	369.491
1523.85	368.465
1541.2	387.647
1558.56	405.411
1575.92	402.144
1593.27	436.08
1610.63	437.461
1627.99	461.582
1645.34	482.8
1662.7	507.46
1680.06	511.575
1697.41	542.814
1714.77	566.352
1732.12	568.106
1749.48	597.155
1766.84	617.948
1784.19	660.511
1801.55	689.161
1818.9	710.463
1836.26	739.522
1853.62	772.107
1870.97	817.567
1888.33	831.61
1905.68	870.635
1923.04	887.133
1940.4	948.624
1957.75	960.366
1975.11	999.197
1992.47	1033.83
2009.82	1089.04
2027.18	1117.7
2044.54	1183.2
2061.89	1201
2079.25	1237.33
2096.6	1289.91
2113.96	1331.84
2131.32	1374.99
2148.67	1414.91
2166.03	1487.22
2183.39	1518.08
2200.74	1575.35
2218.1	1610.04
2235.45	1668.31
2252.81	1730.51
2270.17	1788.77
2287.52	1858.73
2304.88	1897.12
2322.23	1962.47
2339.59	2015.87
2356.95	2132.05
2374.3	2149.12
2391.66	2225.4
2409.01	2270.28
2426.37	2334.29
2443.73	2409.09
2461.08	2485.22
2478.44	2543.78
2495.8	2637.91
2513.15	2687.91
2530.51	2779.36
2547.86	2868.72
2565.22	2928.15
2582.58	3011.64
2599.93	3118.31
2617.29	3225.19
2634.65	3290.08
2652	3383.04
2669.36	3504.13
2686.71	3597.52
2704.07	3676.95
2721.43	3748.81
2738.78	3853.13
2756.14	3955.59
2773.49	4084.25
2790.85	4246.46
2808.21	4286.68
2825.56	4470.78
2842.92	4560.64
2860.28	4704.21
2877.63	4838.77
2894.99	4930.15
2912.34	5149.1
2929.7	5261.44
2947.06	5375.72
2964.41	5591.49
2981.77	5755.56
2999.13	5842.06
3016.48	6008.53
3033.84	6185.89
3051.2	6360.7
3068.55	6541.69
3085.91	6724.04
3103.26	6945.27
3120.62	7218.85
3137.98	7383.33
3155.33	7628.83
3172.69	7774.11
3190.04	7994.49
3207.4	8265.41
3224.76	8420.37
3242.11	8680.4
3259.47	8853.71
3276.82	9210.15
3294.18	9418.95
3311.54	9722.8
3328.89	10082
3346.25	10232.4
3363.61	10542.2
3380.96	10922.3
3398.32	11242.6
3415.68	11671.8
3433.03	12012.3
3450.39	12331.6
3467.74	12578.5
3485.1	13028.5
3502.46	13332
3519.81	13715.2
3537.17	14148.9
3554.52	14503.9
3571.88	14992.7
3589.24	15432.3
3606.59	15939.9
3623.95	16385.7
3641.3	16926.4
3658.66	17491.3
3676.02	17963.2
3693.37	18483.3
3710.73	19203.7
3728.09	19732.7
3745.44	20367.8
3762.8	20841.9
3780.16	21652.1
3797.51	22267.5
3814.87	22906.9
3832.22	23448.4
3849.58	24149.2
3866.94	25011.4
3884.29	25817.3
3901.65	26366.1
3919.01	26876.8
3936.36	27469
3953.72	28053.5
3971.07	28588.8
3988.43	29142.8
4005.79	29637.2
4023.14	30331.6
4040.5	32747
4057.85	42308.6
4075.21	61421.9
4092.57	46013.8
4109.92	37846
4127.28	39602.9
4144.64	57761.6
4161.99	115482
4179.35	69250.5
4196.7	47686.1
4214.06	42771.5
4231.42	42122.7
4248.77	42188.9
4266.13	42894.3
4283.48	43140.8
4300.84	43445.4
4318.2	44756.2
4335.55	46408.7
4352.91	47853.9
4370.27	48323.8
4387.62	48449.2
4404.98	48617
4422.33	48074.9
4439.69	47888.4
4457.05	47674.4
4474.4	47659.4
4491.76	47889.2
4509.11	48060.9
4526.47	48211.7
4543.83	48523.5
4561.18	48460.3
4578.54	48770.9
4595.9	48794.1
4613.25	48988.2
4630.61	49049
4647.97	49206.4
4665.32	49455.9
4682.68	49665.4
4700.03	49991.7
4717.39	50063.4
4734.75	50069.2
4752.1	50422
4769.46	50574.6
4786.81	50778.8
4804.17	50810.2
4821.53	50702
4838.88	51117.1
4856.24	51423.3
4873.6	50856.9
4890.95	50372.6
4908.31	50033.4
4925.66	49768.7
4943.02	49835.1
4960.38	49829.4
4977.73	49617.7
4995.09	49671.4
5012.44	49685.4
5029.8	49611.8
5047.16	49383.9
5064.51	49300.4
5081.87	49160.1
5099.23	49039.9
5116.58	48682.9
5133.94	48233.8
5151.3	48269.4
5168.65	48022.7
5186.01	47735.6
5203.36	47494.3
5220.72	47126.6
5238.08	46690.9
5255.43	46439.2
5272.79	46251.7
5290.15	45623.9
5307.5	45198.9
5324.86	44793.2
5342.21	44491.4
5359.57	43991.8
5376.93	43588.6
5394.28	43048.5
5411.64	42440.8
5428.99	42421.1
5446.35	41647
5463.71	41388.6
5481.06	40776
5498.42	40326.7
5515.77	39927.2
5533.13	39272.7
5550.49	39084.4
5567.84	38579.7
5585.2	38016.8
5602.56	37579.6
5619.91	37014.2
5637.27	36711.5
5654.62	36289.1
5671.98	35665.9
5689.34	35097.6
5706.69	34843.2
5724.05	34210.9
5741.41	33663.3
5758.76	33107.6
5776.12	32672.7
5793.48	32100
5810.83	31671.7
5828.19	31114
5845.54	30768.7
5862.9	30207.2
5880.26	29786.1
5897.61	29309.6
5914.97	28780.7
5932.32	28257.7
5949.68	27908.8
5967.04	27563.3
5984.39	26986.4
6001.75	26429.7
6019.1	26070.4
6036.46	25547.3
6053.82	25131
6071.17	24505.2
6088.53	24145
6105.89	23637.7
6123.24	23308
6140.6	22732.4
6157.95	22192.2
6175.31	21779.2
6192.67	21365.7
6210.02	20867.4
6227.38	20511.3
6244.73	19989.7
6262.09	19657.5
6279.45	19235.4
6296.8	18618.2
6314.16	18336.2
6331.52	17898.3
6348.87	17604.1
6366.23	17122.3
6383.59	16871.8
6400.94	16381.2
6418.3	15953.4
6435.65	15830.1
6453.01	15250.7
6470.37	14967.4
6487.72	14588.9
6505.08	14352.7
6522.44	14033.6
6539.79	13676.4
6557.15	13405.6
6574.5	13145.6
