Measurement: Broad Scan, 532 nm, unoriented, Raman Data RAW
Mineral: Vivianite
Rruff sample: R050464
Ideal chemistry: Fe^2+^_3_(PO_4_)_2_8H_2_O
Locality: Siglo XX mine, Llallagua, Potosi, Bolivia
Source: University of Arizona Mineral Museum
Description: Bluish green elongated prismatic crystals
Measured chemistry: Fe^2+^_3.00_(P_1.00_O_4_)_2_Â·8H_2_O
Raman shift (cm-1)	intensity
86.9175	19.3704
104.274	65.3182
121.63	425.64
138.986	635.467
156.342	726.663
173.698	895.08
191.055	1694.37
208.411	1387.66
225.767	1576.33
243.123	1288.63
260.479	643.357
277.836	537.245
295.192	384.125
312.548	383.887
329.904	301.666
347.26	323.781
364.617	206.259
381.973	185.186
399.329	204.566
416.685	273.368
434.041	463.967
451.398	941.069
468.754	656.857
486.11	469.248
503.466	657.472
520.822	1088.94
538.179	1348.94
555.535	1080.95
572.891	927.691
590.247	467.894
607.604	401.374
624.96	404.739
642.316	363.669
659.672	353.475
677.028	371.784
694.385	391.439
711.741	395.37
729.097	411.831
746.453	444.853
763.809	472.587
781.166	463.823
798.522	495.896
815.878	614.707
833.234	685.881
850.59	632.338
867.947	556.739
885.303	559.168
902.659	792.781
920.015	1673.37
937.371	4207.11
954.728	7218.49
972.084	1551.99
989.44	748.86
1006.8	611.259
1024.15	765.699
1041.51	1444.92
1058.87	1921.65
1076.22	584.446
1093.58	373.145
1110.93	333.717
1128.29	320.05
1145.65	325.459
1163	317.675
1180.36	312.888
1197.71	301.802
1215.07	298.419
1232.43	291.514
1249.78	291.311
1267.14	284.641
1284.49	289.709
1301.85	283.09
1319.21	286.32
1336.56	287.575
1353.92	290.1
1371.28	294.533
1388.63	300.83
1405.99	303.374
1423.35	305.644
1440.7	323.187
1458.06	332.012
1475.41	327.843
1492.77	322.312
1510.13	328.535
1527.48	334.598
1544.84	343.086
1562.19	345.514
1579.55	346.583
1596.91	355.09
1614.26	361.019
1631.62	371.64
1648.98	389.521
1666.33	397.756
1683.69	364.4
1701.04	341.795
1718.4	348.416
1735.76	346.634
1753.11	338.544
1770.47	333.54
1787.83	344.107
1805.18	336.878
1822.54	332.6
1839.89	331.026
1857.25	328.419
1874.61	328.572
1891.96	323.462
1909.32	320.085
1926.67	318.994
1944.03	316.54
1961.39	316.83
1978.74	316.541
1996.1	317.647
2013.46	317.611
2030.81	322.91
2048.17	325.669
2065.53	328.121
2082.88	332.632
2100.24	335.66
2117.59	339.363
2134.95	345.104
2152.31	348.188
2169.66	348.038
2187.02	351.845
2204.37	345.575
2221.73	341.903
2239.09	338.146
2256.44	335.363
2273.8	324.049
2291.16	322.457
2308.51	309.911
2325.87	307.796
2343.22	297.993
2360.58	296.166
2377.94	287.302
2395.29	288.109
2412.65	282.043
2430.01	278.407
2447.36	276.481
2464.72	273.123
2482.07	272.589
2499.43	271.672
2516.79	269.484
2534.14	273.152
2551.5	278.692
2568.85	277.465
2586.21	280.932
2603.57	285.047
2620.92	291.986
2638.28	299.252
2655.64	309.502
2672.99	316.656
2690.35	328.891
2707.7	347.193
2725.06	363.665
2742.42	385.052
2759.77	408.623
2777.13	442.15
2794.49	472.338
2811.84	512.907
2829.2	565.356
2846.55	634.398
2863.91	684.808
2881.27	770.252
2898.62	862.228
2915.98	965.217
2933.34	1107.08
2950.69	1230.72
2968.05	1260.92
2985.4	1354.02
3002.76	1525.37
3020.12	1706.24
3037.47	1937.73
3054.83	2262.29
3072.18	2730.32
3089.54	3412.2
3106.9	4239.36
3124.25	4998.38
3141.61	5341.26
3158.97	5230.24
3176.32	5107.3
3193.68	5005.12
3211.03	4965.51
3228.39	5031.83
3245.75	5141.37
3263.1	5276.37
3280.46	5239.3
3297.82	5051.09
3315.17	4818.99
3332.53	4557.72
3349.88	4256.95
3367.24	3918.92
3384.6	3559.6
3401.95	3241.57
3419.31	2910.32
3436.66	2628.7
3454.02	2396.17
3471.38	2245.9
3488.73	1951.96
3506.09	1559.11
3523.45	1247.51
3540.8	1061.95
3558.16	920.511
3575.51	807.185
3592.87	710.408
3610.23	638.347
3627.58	574.319
3644.94	523.264
3662.3	487.536
3679.65	450.326
3697.01	423.315
3714.36	401.002
3731.72	371.19
3749.08	356.404
3766.43	345.454
3783.79	336.71
3801.14	330.642
3818.5	328.103
3835.86	332.357
3853.21	324.951
3870.57	327.98
3887.93	331.348
3905.28	337.859
3922.64	345.219
3939.99	351.182
3957.35	354.258
3974.71	362.177
3992.06	369.137
4009.42	383.241
4026.78	392.116
4044.13	398.686
4061.49	399.72
4078.84	392.732
4096.2	383.172
4113.56	374.722
4130.91	367.053
4148.27	357.026
4165.62	359.281
4182.98	350.454
4200.34	350.13
4217.69	345.108
4235.05	344.053
4252.41	344.993
4269.76	341.466
4287.12	334.399
4304.48	329.191
4321.83	326.66
4339.19	326.754
4356.54	320.942
4373.9	317.174
4391.26	322.395
4408.61	315.754
4425.97	317.085
4443.32	312.474
4460.68	310.754
4478.04	308.775
4495.39	303.009
4512.75	302.842
4530.1	305.373
4547.46	298.699
4564.82	298.567
4582.17	294.475
4599.53	291.8
4616.89	286.569
4634.24	278.672
4651.6	284.442
4668.95	278.436
4686.31	276.104
4703.67	275.04
4721.02	271.544
4738.38	266.074
4755.74	265.58
4773.09	255.224
4790.45	252.158
4807.81	249.439
4825.16	253.072
4842.52	245.714
4859.87	241.481
4877.23	244.34
4894.59	242.773
4911.94	239.289
4929.3	229.991
4946.65	224.542
4964.01	222.931
4981.37	223.2
4998.72	218.466
5016.08	209.755
5033.44	210.06
5050.79	208.141
5068.15	204.349
5085.5	201.729
5102.86	195.856
5120.22	195.496
5137.57	188.664
5154.93	188.917
5172.28	190.764
5189.64	183.404
5207	180.829
5224.35	177.832
5241.71	171.44
5259.07	171.22
5276.42	168.768
5293.78	165.495
5311.13	164.587
5328.49	161.86
5345.85	158.492
5363.2	154.23
5380.56	153.886
5397.92	149.24
5415.27	149.384
5432.63	145.395
5449.98	145.48
5467.34	138.717
5484.7	142.078
5502.05	136.858
5519.41	132.323
5536.77	131.655
5554.12	127.204
5571.48	124.04
5588.83	123.793
5606.19	119.631
5623.55	117.977
5640.9	116.917
5658.26	114.417
5675.61	110.707
5692.97	110.467
5710.33	107.784
5727.68	106.299
5745.04	104.025
5762.4	103.3
5779.75	104.796
5797.11	100.247
5814.46	96.6769
5831.82	96.7305
5849.18	94.2813
5866.53	92.5227
5883.89	92.8382
5901.24	88.6561
5918.6	87.753
5935.96	87.4082
5953.31	85.416
5970.67	88.0701
5988.03	89.4613
6005.38	80.4441
6022.74	78.6656
6040.1	80.1483
6057.45	78.3759
6074.81	75.6944
6092.16	73.3384
6109.52	72.2117
6126.88	69.2881
6144.23	74.0614
6161.59	66.5229
6178.94	70.4705
6196.3	66.3369
6213.66	68.8851
6231.01	65.6428
6248.37	65.9048
6265.73	63.4575
6283.08	63.2624
6300.44	60.8875
6317.79	59.7699
6335.15	60.8787
6352.51	62.4282
6369.86	57.6229
6387.22	59.6025
6404.57	56.0779
6421.93	56.2938
6439.29	56.6676
6456.64	54.9035
6474	54.8458
6491.36	49.8531
6508.71	52.7376
6526.07	50.0363
6543.43	48.9655
6560.78	48.5226
6578.14	51.1612
6595.49	49.9919
6612.85	46.83
6630.21	48.4318
